/*---------------------------------------------------------------------------*\
  =========                 |
  \\      /  F ield         | OpenFOAM: The Open Source CFD Toolbox
   \\    /   O peration     | Website:  https://openfoam.org
    \\  /    A nd           | Version:  8
     \\/     M anipulation  |
\*---------------------------------------------------------------------------*/
Build  : 8-340defec456f
Exec   : blockMesh
Date   : Dec 05 2020
Time   : 14:19:03
Host   : "LAP23"
PID    : 1022
I/O    : uncollated
Case   : /home/schubert/OpenFOAM/schubert-8/tutorials/mesh/blockMesh/pipe
nProcs : 1
sigFpe : Enabling floating point exception trapping (FOAM_SIGFPE).
fileModificationChecking : Monitoring run-time modified files using timeStampMaster (fileModificationSkew 10)
allowSystemOperations : Allowing user-supplied system call operations

// * * * * * * * * * * * * * * * * * * * * * * * * * * * * * * * * * * * * * //
Create time

Overriding DebugSwitches according to controlDict
Creating block mesh from
    "system/blockMeshDict"
Header   : "# vtk DataFile Version 4.0"
Title    : "vtk output"
dataType : "ASCII"
line:4 tag:DATASET
geomType : POLYDATA
line:5 tag:POINTS
Reading 17 numbers representing 17 coordinates.
line:12 tag:LINES
Reading 1 lines.
Read points:17 cellShapes:0 faces:0 lines:1

Cell fields:


Point fields:


Other fields:
Creating block edges
projectCurve : Using curved surface cylinder2 to predict starting points.
projectCurve : Using curved surface cylinder2 to predict starting points.
projectCurve : Using curved surface cylinder2 to predict starting points.
projectCurve : Using curved surface cylinder2 to predict starting points.
Creating block faces
Creating topology blocks
Creating topology patches

Creating block mesh topology
--> FOAM Warning : 
    From function Foam::polyMesh::polyMesh(const Foam::IOobject&, Foam::pointField&&, const cellShapeList&, const faceListList&, const wordList&, const Foam::PtrList<Foam::dictionary>&, const Foam::word&, const Foam::word&, bool)
    in file meshes/polyMesh/polyMeshFromShapeMesh.C at line 873
    Found 15 undefined faces in mesh; adding to default patch.

Check topology

	Basic statistics
		Number of internal faces : 3
		Number of boundary faces : 18
		Number of defined boundary faces : 18
		Number of undefined boundary faces : 0
	Checking patch -> block consistency

Creating block offsets
Creating merge list .

Creating polyMesh from blockMesh
Creating patches
Creating cells
Creating points with scale 1
    Block 0 cell size :
        i : 0.155371 .. 0.155371 0.144008 .. 0.151097 0.1453 .. 0.154595 0.14047 .. 0.152943 
        j : 0.0866574 .. 0.0866574 0.089626 .. 0.089626 0.0960503 .. 0.0960503 0.10048 .. 0.10048 
        k : 0.114985 .. 0.114784 0.126675 .. 0.127135 0.114795 .. 0.115517 0.125693 .. 0.126652 
    Block 1 cell size :
        i : 0.0866574 .. 0.0866574 0.0927137 .. 0.0960176 0.0960503 .. 0.0960503 0.096804 .. 0.0978591 
        j : 0.23673 .. 0.235962 0.237904 .. 0.237957 0.235141 .. 0.235164 0.234775 .. 0.235982 
        k : 0.114985 .. 0.114784 0.114795 .. 0.115517 0.117679 .. 0.11714 0.121821 .. 0.12172 
    Block 2 cell size :
        i : 0.155262 .. 0.155262 0.145572 .. 0.154745 0.152504 .. 0.152758 0.144928 .. 0.153215 
        j : 0.114784 .. 0.114985 0.127135 .. 0.126675 0.114059 .. 0.114047 0.126752 .. 0.126249 
        k : 0.157615 0.154088 .. 0.154088 0.148011 .. 0.148011 0.145701 .. 0.145701 
    Block 3 cell size :
        i : 0.137056 .. 0.137056 0.143369 0.131068 .. 0.13121 0.138996 .. 0.139139 
        j : 0.137056 .. 0.137056 0.143369 .. 0.143369 0.138702 .. 0.138962 0.143173 .. 0.144575 
        k : 0.137355 .. 0.137355 0.127441 .. 0.127441 0.13304 .. 0.13304 0.124434 .. 0.124434 

There are no merge patch pairs edges

Writing polyMesh
----------------
Mesh Information
----------------
  boundingBox: (-4 -1 -0.7) (0.7 2 1.9297)
  nPoints: 3645
  nCells: 2816
  nFaces: 9216
  nInternalFaces: 7680
----------------
Patches
----------------
  patch 0 (start: 7680 size: 64) name: side
  patch 1 (start: 7744 size: 64) name: inlet
  patch 2 (start: 7808 size: 64) name: outlet
  patch 3 (start: 7872 size: 1344) name: walls

End

